/*---------------------------------------------------------------------------*\
  =========                 |
  \\      /  F ield         | OpenFOAM: The Open Source CFD Toolbox
   \\    /   O peration     | Website:  https://openfoam.org
    \\  /    A nd           | Version:  9
     \\/     M anipulation  |
\*---------------------------------------------------------------------------*/
Build  : 9-710dba47639b
Exec   : blockMesh
Date   : Nov 03 2022
Time   : 15:46:51
Host   : "DESKTOP-BRBU4A0"
PID    : 3150
I/O    : uncollated
Case   : /mnt/c/Users/Lbnz/Desktop/Classy/Show_case/case
nProcs : 1
sigFpe : Enabling floating point exception trapping (FOAM_SIGFPE).
fileModificationChecking : Monitoring run-time modified files using timeStampMaster (fileModificationSkew 10)
allowSystemOperations : Allowing user-supplied system call operations

// * * * * * * * * * * * * * * * * * * * * * * * * * * * * * * * * * * * * * //
Create time

Reading "blockMeshDict"

Creating block mesh from
    "system/blockMeshDict"
Creating block edges
Creating block faces
Creating topology blocks
Creating topology patches

Creating block mesh topology

Check topology

	Basic statistics
		Number of internal faces : 117
		Number of boundary faces : 42
		Number of defined boundary faces : 42
		Number of undefined boundary faces : 0
	Checking patch -> block consistency

Creating block offsets
Creating merge list .

Creating polyMesh from blockMesh
Creating patches
Creating cells
Creating points with scale 1
    Block 0 cell size :
        i : 0.00303692 .. 0.00303692 0.0031125 .. 0.0031125 0.00284711 .. 0.00284711 0.00291797 .. 0.00291797 
        j : 0.00303692 .. 0.00303692 0.0031125 .. 0.0031125 0.00284711 .. 0.00284711 0.00291797 .. 0.00291797 
        k : 0.0150851 .. 0.0150851 0.0150749 .. 0.0150749 0.0150749 .. 0.0150749 0.015063 .. 0.015063 
    Block 1 cell size :
        i : 0.00205714 .. 0.00205714 0.00228741 .. 0.00228741 0.00192857 .. 0.00192857 0.00214444 .. 0.00214444 
        j : 0.00303692 .. 0.00303692 0.00326771 .. 0.00326771 0.00284711 .. 0.00284711 0.00306348 .. 0.00306348 
        k : 0.0150851 .. 0.0150851 0.0150993 .. 0.0150993 0.0150749 .. 0.0150749 0.0150897 .. 0.0150897 
    Block 2 cell size :
        i : 0.00205714 .. 0.00205714 0.00228741 .. 0.00228741 0.00192857 .. 0.00192857 0.00214444 .. 0.00214444 
        j : 0.00303692 .. 0.00303692 0.00326771 .. 0.00326771 0.00284711 .. 0.00284711 0.00306348 .. 0.00306348 
        k : 0.0150851 .. 0.0150851 0.0150993 .. 0.0150993 0.0150749 .. 0.0150749 0.0150897 .. 0.0150897 
    Block 3 cell size :
        i : 0.00205714 .. 0.00205714 0.00228741 .. 0.00228741 0.00192857 .. 0.00192857 0.00214444 .. 0.00214444 
        j : 0.00303692 .. 0.00303692 0.00326771 .. 0.00326771 0.00284711 .. 0.00284711 0.00306348 .. 0.00306348 
        k : 0.0150851 .. 0.0150851 0.0150993 .. 0.0150993 0.0150749 .. 0.0150749 0.0150897 .. 0.0150897 
    Block 4 cell size :
        i : 0.00205714 .. 0.00205714 0.00228741 .. 0.00228741 0.00192857 .. 0.00192857 0.00214444 .. 0.00214444 
        j : 0.00303692 .. 0.00303692 0.00326771 .. 0.00326771 0.00284711 .. 0.00284711 0.00306348 .. 0.00306348 
        k : 0.0150851 .. 0.0150851 0.0150993 .. 0.0150993 0.0150749 .. 0.0150749 0.0150897 .. 0.0150897 
    Block 5 cell size :
        i : 0.00227769 .. 0.00227769 0.00233437 .. 0.00233437 0.00227769 .. 0.00227769 0.00233437 .. 0.00233437 
        j : 0.00227769 .. 0.00227769 0.00233437 .. 0.00233437 0.00227769 .. 0.00227769 0.00233437 .. 0.00233437 
        k : 0.0149226 .. 0.00373064
    Block 6 cell size :
        i : 0.00154286 0.00171555 0.00154286 .. 0.00154286 0.00171555 .. 0.00171555 
        j : 0.00227769 .. 0.00227769 0.00245079 .. 0.00245079 0.00227769 .. 0.00227769 0.00245079 .. 0.00245079 
        k : 0.0149226 .. 0.00373064
    Block 7 cell size :
        i : 0.00154286 0.00171555 0.00154286 .. 0.00154286 0.00171555 .. 0.00171555 
        j : 0.00227769 .. 0.00227769 0.00245079 .. 0.00245079 0.00227769 .. 0.00227769 0.00245079 .. 0.00245079 
        k : 0.0149226 .. 0.00373064
    Block 8 cell size :
        i : 0.00154286 0.00171555 0.00154286 .. 0.00154286 0.00171555 .. 0.00171555 
        j : 0.00227769 .. 0.00227769 0.00245079 .. 0.00245079 0.00227769 .. 0.00227769 0.00245079 .. 0.00245079 
        k : 0.0149226 .. 0.00373064
    Block 9 cell size :
        i : 0.00154286 0.00171555 0.00154286 .. 0.00154286 0.00171555 .. 0.00171555 
        j : 0.00227769 .. 0.00227769 0.00245079 .. 0.00245079 0.00227769 .. 0.00227769 0.00245079 .. 0.00245079 
        k : 0.0149226 .. 0.00373064
    Block 10 cell size :
        i : 0.00227769 .. 0.00227769 0.00233437 .. 0.00233437 0.00230063 .. 0.00230063 0.00235789 .. 0.00235789 
        j : 0.00227769 .. 0.00227769 0.00233437 .. 0.00233437 0.00230063 .. 0.00230063 0.00235789 .. 0.00235789 
        k : 0.00378221 .. 0.00378221 0.00378162 0.00378162 0.00378093 .. 0.00378093 
    Block 11 cell size :
        i : 0.00154286 0.00171555 0.0015584 .. 0.0015584 0.00173283 
        j : 0.00227769 .. 0.00227769 0.00245079 .. 0.00245079 0.00230063 .. 0.00230063 0.00247547 .. 0.00247547 
        k : 0.00378221 .. 0.00378221 0.00378304 .. 0.00378304 0.00378162 0.00378248 .. 0.00378248 
    Block 12 cell size :
        i : 0.00154286 0.00171555 0.0015584 .. 0.0015584 0.00173283 
        j : 0.00227769 .. 0.00227769 0.00245079 .. 0.00245079 0.00230063 .. 0.00230063 0.00247547 .. 0.00247547 
        k : 0.00378221 .. 0.00378221 0.00378304 .. 0.00378304 0.00378162 0.00378248 .. 0.00378248 
    Block 13 cell size :
        i : 0.00154286 0.00171555 0.0015584 .. 0.0015584 0.00173283 
        j : 0.00227769 .. 0.00227769 0.00245079 .. 0.00245079 0.00230063 .. 0.00230063 0.00247547 .. 0.00247547 
        k : 0.00378221 .. 0.00378221 0.00378304 .. 0.00378304 0.00378162 0.00378248 .. 0.00378248 
    Block 14 cell size :
        i : 0.00154286 0.00171555 0.0015584 .. 0.0015584 0.00173283 
        j : 0.00227769 .. 0.00227769 0.00245079 .. 0.00245079 0.00230063 .. 0.00230063 0.00247547 .. 0.00247547 
        k : 0.00378221 .. 0.00378221 0.00378304 .. 0.00378304 0.00378162 0.00378248 .. 0.00378248 
    Block 15 cell size :
        i : 0.00378933 .. 0.00378933 0.00378309 .. 0.00378309 0.00378933 .. 0.00378933 0.00378309 
        j : 0.00666667 0.00657433 .. 0.00657433 0.00666667 .. 0.00666667 0.00657433 .. 0.00657433 
        k : 0.00392419 .. 0.00392419 0.00396371 .. 0.00396371 0.00479623 .. 0.00479623 0.00482368 .. 0.00482368 
    Block 16 cell size :
        i : 0.00378933 .. 0.00378933 0.00378309 .. 0.00378309 0.00378933 .. 0.00378933 0.00378309 
        j : 0.00666667 0.00657433 .. 0.00657433 0.00666667 .. 0.00666667 0.00657433 .. 0.00657433 
        k : 0.00392419 .. 0.00392419 0.00396371 .. 0.00396371 0.00479623 .. 0.00479623 0.00482368 .. 0.00482368 
    Block 17 cell size :
        i : 0.00378933 .. 0.00378933 0.00378309 .. 0.00378309 0.00378933 .. 0.00378933 0.00378309 
        j : 0.00666667 0.00657433 .. 0.00657433 0.00666667 .. 0.00666667 0.00657433 .. 0.00657433 
        k : 0.00392419 .. 0.00392419 0.00396371 .. 0.00396371 0.00479623 .. 0.00479623 0.00482368 .. 0.00482368 
    Block 18 cell size :
        i : 0.00378933 .. 0.00378933 0.00378309 .. 0.00378309 0.00378933 .. 0.00378933 0.00378309 
        j : 0.00666667 0.00657433 .. 0.00657433 0.00666667 .. 0.00666667 0.00657433 .. 0.00657433 
        k : 0.00392419 .. 0.00392419 0.00396371 .. 0.00396371 0.00479623 .. 0.00479623 0.00482368 .. 0.00482368 
    Block 19 cell size :
        i : 0.00318877 .. 0.00318877 0.00326812 .. 0.00326812 0.00318877 .. 0.00318877 0.00326812 .. 0.00326812 
        j : 0.00318877 .. 0.00318877 0.00326812 .. 0.00326812 0.00318877 .. 0.00318877 0.00326812 .. 0.00326812 
        k : 0.00379709 .. 0.0151884
    Block 20 cell size :
        i : 0.00216 .. 0.00216 0.00240178 .. 0.00240178 0.00216 .. 0.00216 0.00240178 .. 0.00240178 
        j : 0.00318877 .. 0.00318877 0.0034311 .. 0.0034311 0.00318877 .. 0.00318877 0.0034311 .. 0.0034311 
        k : 0.00379709 .. 0.0151884
    Block 21 cell size :
        i : 0.00216 .. 0.00216 0.00240178 .. 0.00240178 0.00216 .. 0.00216 0.00240178 .. 0.00240178 
        j : 0.00318877 .. 0.00318877 0.0034311 .. 0.0034311 0.00318877 .. 0.00318877 0.0034311 .. 0.0034311 
        k : 0.00379709 .. 0.0151884
    Block 22 cell size :
        i : 0.00216 .. 0.00216 0.00240178 .. 0.00240178 0.00216 .. 0.00216 0.00240178 .. 0.00240178 
        j : 0.00318877 .. 0.00318877 0.0034311 .. 0.0034311 0.00318877 .. 0.00318877 0.0034311 .. 0.0034311 
        k : 0.00379709 .. 0.0151884
    Block 23 cell size :
        i : 0.00216 .. 0.00216 0.00240178 .. 0.00240178 0.00216 .. 0.00216 0.00240178 .. 0.00240178 
        j : 0.00318877 .. 0.00318877 0.0034311 .. 0.0034311 0.00318877 .. 0.00318877 0.0034311 .. 0.0034311 
        k : 0.00379709 .. 0.0151884
    Block 24 cell size :
        i : 0.00379709 .. 0.0151884
        j : 0.003
        k : 0.00549386 .. 0.00549386 0.00549386 .. 0.00549386 0.00588628 .. 0.00588628 0.00588628 .. 0.00588628 
    Block 25 cell size :
        i : 0.00379709 .. 0.0151884
        j : 0.003
        k : 0.00549386 .. 0.00549386 0.00549386 .. 0.00549386 0.00588628 .. 0.00588628 0.00588628 .. 0.00588628 
    Block 26 cell size :
        i : 0.00379709 .. 0.0151884
        j : 0.003
        k : 0.00549386 .. 0.00549386 0.00549386 .. 0.00549386 0.00588628 .. 0.00588628 0.00588628 .. 0.00588628 
    Block 27 cell size :
        i : 0.00379709 .. 0.0151884
        j : 0.003
        k : 0.00549386 .. 0.00549386 0.00549386 .. 0.00549386 0.00588628 .. 0.00588628 0.00588628 .. 0.00588628 
    Block 28 cell size :
        i : 0.00318877 .. 0.00318877 0.00326812 .. 0.00326812 0.00323757 .. 0.00323757 0.00331814 .. 0.00331814 
        j : 0.00318877 .. 0.00318877 0.00326812 .. 0.00326812 0.00323757 .. 0.00323757 0.00331814 .. 0.00331814 
        k : 0.00369596 .. 0.0147838 0.0036932 .. 0.0147728 0.0036932 .. 0.0147728 0.00369001 .. 0.01476 
    Block 29 cell size :
        i : 0.00216 .. 0.00216 0.00240178 .. 0.00240178 0.00219306 .. 0.00219306 0.00243853 .. 0.00243853 
        j : 0.00318877 .. 0.00318877 0.0034311 .. 0.0034311 0.00323757 .. 0.00323757 0.00348361 .. 0.00348361 
        k : 0.00369596 .. 0.0147838 0.00369979 .. 0.0147991 0.0036932 .. 0.0147728 0.00369722 .. 0.0147889 
    Block 30 cell size :
        i : 0.00216 .. 0.00216 0.00240178 .. 0.00240178 0.00219306 .. 0.00219306 0.00243853 .. 0.00243853 
        j : 0.00318877 .. 0.00318877 0.0034311 .. 0.0034311 0.00323757 .. 0.00323757 0.00348361 .. 0.00348361 
        k : 0.00369596 .. 0.0147838 0.00369979 .. 0.0147991 0.0036932 .. 0.0147728 0.00369722 .. 0.0147889 
    Block 31 cell size :
        i : 0.00216 .. 0.00216 0.00240178 .. 0.00240178 0.00219306 .. 0.00219306 0.00243853 .. 0.00243853 
        j : 0.00318877 .. 0.00318877 0.0034311 .. 0.0034311 0.00323757 .. 0.00323757 0.00348361 .. 0.00348361 
        k : 0.00369596 .. 0.0147838 0.00369979 .. 0.0147991 0.0036932 .. 0.0147728 0.00369722 .. 0.0147889 
    Block 32 cell size :
        i : 0.00216 .. 0.00216 0.00240178 .. 0.00240178 0.00219306 .. 0.00219306 0.00243853 .. 0.00243853 
        j : 0.00318877 .. 0.00318877 0.0034311 .. 0.0034311 0.00323757 .. 0.00323757 0.00348361 .. 0.00348361 
        k : 0.00369596 .. 0.0147838 0.00369979 .. 0.0147991 0.0036932 .. 0.0147728 0.00369722 .. 0.0147889 
    Block 33 cell size :
        i : 0.00372881 .. 0.0149153 0.003737 .. 0.014948 0.00372881 .. 0.0149153 0.003737 .. 0.014948 
        j : 0.003 0.00304591 0.003 .. 0.003 0.00304591 .. 0.00304591 
        k : 0.00549386 .. 0.00549386 0.00557794 .. 0.00557794 0.00588628 .. 0.00588628 0.00597637 .. 0.00597637 
    Block 34 cell size :
        i : 0.00372881 .. 0.0149153 0.003737 .. 0.014948 0.00372881 .. 0.0149153 0.003737 .. 0.014948 
        j : 0.003 0.00304591 0.003 .. 0.003 0.00304591 .. 0.00304591 
        k : 0.00549386 .. 0.00549386 0.00557794 .. 0.00557794 0.00588628 .. 0.00588628 0.00597637 .. 0.00597637 
    Block 35 cell size :
        i : 0.00372881 .. 0.0149153 0.003737 .. 0.014948 0.00372881 .. 0.0149153 0.003737 .. 0.014948 
        j : 0.003 0.00304591 0.003 .. 0.003 0.00304591 .. 0.00304591 
        k : 0.00549386 .. 0.00549386 0.00557794 .. 0.00557794 0.00588628 .. 0.00588628 0.00597637 .. 0.00597637 
    Block 36 cell size :
        i : 0.00372881 .. 0.0149153 0.003737 .. 0.014948 0.00372881 .. 0.0149153 0.003737 .. 0.014948 
        j : 0.003 0.00304591 0.003 .. 0.003 0.00304591 .. 0.00304591 
        k : 0.00549386 .. 0.00549386 0.00557794 .. 0.00557794 0.00588628 .. 0.00588628 0.00597637 .. 0.00597637 
    Block 37 cell size :
        i : 0.00584608 .. 0.00584608 0.00599156 .. 0.00599156 0.00584608 .. 0.00584608 0.00599156 .. 0.00599156 
        j : 0.00584608 .. 0.00584608 0.00599156 .. 0.00599156 0.00584608 .. 0.00584608 0.00599156 .. 0.00599156 
        k : 0.0113753 .. 0.0151671
    Block 38 cell size :
        i : 0.00396 .. 0.00396 0.00440326 .. 0.00440326 0.00396 .. 0.00396 0.00440326 .. 0.00440326 
        j : 0.00584608 .. 0.00584608 0.00629035 .. 0.00629035 0.00584608 .. 0.00584608 0.00629035 
        k : 0.0113753 .. 0.0151671
    Block 39 cell size :
        i : 0.00396 .. 0.00396 0.00440326 .. 0.00440326 0.00396 .. 0.00396 0.00440326 .. 0.00440326 
        j : 0.00584608 .. 0.00584608 0.00629035 .. 0.00629035 0.00584608 .. 0.00584608 0.00629035 
        k : 0.0113753 .. 0.0151671
    Block 40 cell size :
        i : 0.00396 .. 0.00396 0.00440326 .. 0.00440326 0.00396 .. 0.00396 0.00440326 .. 0.00440326 
        j : 0.00584608 .. 0.00584608 0.00629035 .. 0.00629035 0.00584608 .. 0.00584608 0.00629035 
        k : 0.0113753 .. 0.0151671
    Block 41 cell size :
        i : 0.00396 .. 0.00396 0.00440326 .. 0.00440326 0.00396 .. 0.00396 0.00440326 .. 0.00440326 
        j : 0.00584608 .. 0.00584608 0.00629035 .. 0.00629035 0.00584608 .. 0.00584608 0.00629035 
        k : 0.0113753 .. 0.0151671
    Block 42 cell size :
        i : 0.0113753 .. 0.0151671
        j : 0.0055 .. 0.0055
        k : 0.0100721 .. 0.0100721 0.0100721 .. 0.0100721 0.0107915 .. 0.0107915 0.0107915 .. 0.0107915 
    Block 43 cell size :
        i : 0.0113753 .. 0.0151671
        j : 0.0055 .. 0.0055
        k : 0.0100721 .. 0.0100721 0.0100721 .. 0.0100721 0.0107915 .. 0.0107915 0.0107915 .. 0.0107915 
    Block 44 cell size :
        i : 0.0113753 .. 0.0151671
        j : 0.0055 .. 0.0055
        k : 0.0100721 .. 0.0100721 0.0100721 .. 0.0100721 0.0107915 .. 0.0107915 0.0107915 .. 0.0107915 
    Block 45 cell size :
        i : 0.0113753 .. 0.0151671
        j : 0.0055 .. 0.0055
        k : 0.0100721 .. 0.0100721 0.0100721 .. 0.0100721 0.0107915 .. 0.0107915 0.0107915 .. 0.0107915 

Writing polyMesh
----------------
Mesh Information
----------------
  boundingBox: (-0.11 -0.11 0) (0.11 0.11 1.68)
  nPoints: 117451
  nCells: 112608
  nFaces: 342480
  nInternalFaces: 333168
----------------
Patches
----------------
  patch 0 (start: 333168 size: 768) name: outlet
  patch 1 (start: 333936 size: 480) name: inlet
  patch 2 (start: 334416 size: 8064) name: wall

End

